tests/algo/res/IEEE14_disconnected_shunts.iidm
<?xml version="1.0" encoding="UTF-8"?>
<!--
    Copyright (c) 2015-2019, RTE (http://www.rte-france.com)
    See AUTHORS.txt
    All rights reserved.
    This Source Code Form is subject to the terms of the Mozilla Public
    License, v. 2.0. If a copy of the MPL was not distributed with this
    file, you can obtain one at http://mozilla.org/MPL/2.0/.
    SPDX-License-Identifier: MPL-2.0

    This file is part of Dynawo, a hybrid C++/Modelica open source time domain
    simulation tool for power systems.
-->
<iidm:network xmlns:iidm="http://www.itesla_project.eu/schema/iidm/1_0" id="ieee14bus" caseDate="2017-06-09T10:14:24.146+02:00" forecastDistance="0" sourceFormat="CIM1">
    <iidm:substation id="_BUS____4_SS" name="BUS    4_SS" country="AF" geographicalTags="_SGR_01">
        <iidm:voltageLevel id="_BUS____9_VL" name="BUS    9_VL" nominalV="13.8" topologyKind="NODE_BREAKER">
            <iidm:nodeBreakerTopology nodeCount="14">
                <iidm:busbarSection id="BBS1" name="0" node="0"/>
                <iidm:busbarSection id="BBS2" name="1" node="1"/>
                <iidm:switch id="Disc0" name="Disc0" kind="DISCONNECTOR" retained="false" open="false" node1="1" node2="2"/>
                <iidm:switch id="Disc1" name="Disc1" kind="DISCONNECTOR" retained="false" open="false" node1="0" node2="2"/>
                <iidm:switch id="Break0" name="Break0" kind="BREAKER" retained="true" open="false" node1="2" node2="3"/>
                <iidm:switch id="Disc2ShouldNotBeClosed" name="Disc2ShouldNotBeClosed" kind="DISCONNECTOR" retained="false" open="true" node1="2" node2="4"/>
                <iidm:switch id="Break7" name="Break7" kind="BREAKER" retained="true" open="false" node1="2" node2="10"/>
                <iidm:switch id="Break6" name="Break6" kind="BREAKER" retained="true" open="true" node1="2" node2="9"/>
                <iidm:switch id="Break8" name="Break8" kind="BREAKER" retained="true" open="true" node1="2" node2="11"/>
                <iidm:switch id="Break9" name="Break9" kind="BREAKER" retained="true" open="false" node1="2" node2="12"/>
                <iidm:switch id="Disc3ShouldNotBeClosed" name="Disc3ShouldNotBeClosed" kind="DISCONNECTOR" retained="false" open="false" node1="2" node2="13"/>
                <iidm:switch id="Break2" name="Break2" kind="BREAKER" retained="true" open="false" node1="2" node2="5"/>
                <iidm:switch id="Break3" name="Break3" kind="BREAKER" retained="true" open="false" node1="2" node2="6"/>
                <iidm:switch id="Break4" name="Break4" kind="BREAKER" retained="true" open="false" node1="2" node2="7"/>
                <iidm:switch id="Break5" name="Break5" kind="BREAKER" retained="true" open="false" node1="2" node2="8"/>
            </iidm:nodeBreakerTopology>
            <iidm:load id="_LOAD___9_EC" name="LOAD   9" loadType="UNDEFINED" p0="29.5" q0="16.6" node="3" p="29.5" q="16.6"/>
            <iidm:shunt id="_BANK___9_SCCannotBeConnected" name="BANK   9" bPerSection="0.099769" maximumSectionCount="1" currentSectionCount="1" node="4" q="-21.256718"/>
            <iidm:shunt id="_BANK___9_SCShouldChangeState" name="BANK   9.2" bPerSection="0.099769" maximumSectionCount="1" currentSectionCount="1" node="9" q="-21.256718"/>
            <iidm:shunt id="_BANK___9_SCAlreadyConnected" name="BANK   9.2" bPerSection="0.099769" maximumSectionCount="1" currentSectionCount="1" node="10" q="-21.256718"/>
            <iidm:shunt id="_BANK___9_CapaAlreadyDisconnected" name="BANK   9.2" bPerSection="-0.099769" maximumSectionCount="1" currentSectionCount="1" node="11" q="-21.256718"/>
            <iidm:shunt id="_BANK___9_Capa2ShouldChangeState" name="BANK   9.2" bPerSection="-0.099769" maximumSectionCount="1" currentSectionCount="1" node="12" q="-21.256718"/>
            <iidm:shunt id="_BANK___9_Capa3CannotBeDisconnected" name="BANK   9.2" bPerSection="-0.099769" maximumSectionCount="1" currentSectionCount="1" node="13" q="-21.256718"/>
        </iidm:voltageLevel>
        <iidm:voltageLevel id="_BUS____7_VL" name="BUS    7_VL" nominalV="13.8" topologyKind="BUS_BREAKER">
            <iidm:busBreakerTopology>
                <iidm:bus id="_BUS____7_TN" v="14.649" angle="-13.3596"/>
            </iidm:busBreakerTopology>
        </iidm:voltageLevel>
        <iidm:voltageLevel id="_BUS____4_VL" name="BUS    4_VL" nominalV="69.0" topologyKind="BUS_BREAKER">
            <iidm:busBreakerTopology>
                <iidm:bus id="_BUS____4_TN" v="70.2193" angle="-10.3129"/>
            </iidm:busBreakerTopology>
            <iidm:load id="_LOAD___4_EC" name="LOAD   4" loadType="UNDEFINED" p0="47.8" q0="-3.9" bus="_BUS____4_TN" connectableBus="_BUS____4_TN" p="47.8" q="-3.9"/>
        </iidm:voltageLevel>
    </iidm:substation>
</iidm:network>
